31

C          1.08711       -0.24361       -1.10660
N          0.75203       -1.47356       -0.39920
C         -0.60305       -1.49596        0.14765
C         -1.14067       -2.76441        0.83824
O         -2.48287       -2.47074        1.20188
C         -1.11695       -4.03571       -0.02783
O         -1.74161       -3.75539       -1.28680
C          0.25925       -4.71005       -0.17738
C          1.48844       -3.86473        0.20394
N          2.71296       -4.54800       -0.18938
C          3.30734       -3.70399       -0.97569
N          4.49214       -3.92932       -1.59574
C          5.12625       -5.23061       -1.56283
N          2.69727       -2.45785       -1.22129
C          1.60273       -2.51579       -0.51128
H          0.65129        0.60782       -0.57707
H          0.69834       -0.25221       -2.13369
H          2.17055       -0.14156       -1.15337
H         -0.70696       -0.67487        0.86709
H         -1.30591       -1.27359       -0.66891
H         -0.61328       -2.94669        1.77950
H         -2.99886       -2.53562        0.38728
H         -1.81044       -4.72780        0.46022
H         -1.07507       -3.38011       -1.87289
H          0.37374       -5.03783       -1.21649
H          0.29501       -5.61935        0.42939
H          1.48331       -3.69037        1.28955
H          4.71263       -3.29083       -2.33911
H          4.40072       -6.02965       -1.75513
H          5.91334       -5.26231       -2.32015
H          5.57983       -5.42592       -0.58422
